Version 4
SHEET 1 880 708
WIRE -752 -144 -944 -144
WIRE -944 -80 -944 -144
WIRE -944 32 -944 0
WIRE -640 32 -944 32
WIRE -640 48 -640 32
WIRE 416 64 224 64
WIRE -944 80 -944 32
WIRE 224 176 224 64
WIRE 256 176 224 176
WIRE 416 192 416 64
WIRE 416 192 320 192
WIRE 512 192 416 192
WIRE 96 208 96 112
WIRE 96 208 -112 208
WIRE 224 208 96 208
WIRE 256 208 224 208
WIRE -944 224 -944 160
WIRE -752 224 -944 224
WIRE 96 336 96 208
WIRE -528 512 -896 512
WIRE -896 560 -896 512
WIRE -896 672 -896 640
WIRE -592 672 -896 672
WIRE -592 688 -592 672
FLAG 512 192 Out_Adapt
FLAG 288 160 Vcc+
FLAG 288 224 Vcc-
FLAG 96 416 0
FLAG 96 32 Vcc+
FLAG -640 48 0
FLAG -752 -144 Vcc+
FLAG -752 224 Vcc-
FLAG -592 688 0
FLAG -528 512 OutGBF
FLAG -176 208 OutGBF
FLAG 224 208 V+
SYMBOL cap -112 192 R90
WINDOW 0 0 32 VBottom 2
WINDOW 3 32 32 VTop 2
SYMATTR InstName C1
SYMATTR Value 4.14n
SYMBOL res 80 16 R0
SYMATTR InstName Ra1
SYMATTR Value 21k
SYMBOL res 80 320 R0
SYMATTR InstName Rb1
SYMATTR Value 4.7k
SYMBOL OpAmps\\LT1055 288 128 R0
SYMATTR InstName U1
SYMBOL voltage -944 -96 R0
WINDOW 123 0 0 Left 0
WINDOW 39 0 0 Left 0
SYMATTR InstName V1
SYMATTR Value 9
SYMBOL voltage -944 64 R0
WINDOW 123 0 0 Left 0
WINDOW 39 0 0 Left 0
SYMATTR InstName V2
SYMATTR Value 9
SYMBOL voltage -896 544 R0
WINDOW 123 24 124 Left 2
WINDOW 39 0 0 Left 0
SYMATTR Value2 AC 1
SYMATTR InstName V4
SYMATTR Value PULSE(0 0.2 0 1n 1n 5u 10u)
TEXT 400 568 Left 2 !.ac dec 100 1 10meg
TEXT -24 536 Left 2 !.op
